Metadata-Version: 2.1
Name: rtmf6
Version: 0.0.0
Summary: Reactive transport modeling with MODFLOW 6
Author-email: Mike Müller <mmueller@hydrocomputing.com>
Requires-Python: >=3.11
Provides-Extra: test
Requires-Dist: pytest ; extra == 'test'

